Version 4.1
SHEET 1 1052 680
WIRE 288 64 256 64
WIRE 384 64 368 64
WIRE 256 96 256 64
WIRE 112 112 112 64
WIRE 368 128 368 64
WIRE 512 192 512 160
WIRE 480 208 368 208
WIRE 112 224 112 192
WIRE 576 224 544 224
WIRE 368 240 368 208
WIRE 480 240 448 240
WIRE 512 272 512 256
WIRE 512 304 512 288
WIRE 480 320 368 320
WIRE 576 336 544 336
WIRE 368 352 368 320
WIRE 480 352 448 352
WIRE 512 384 512 368
WIRE 512 416 512 400
WIRE 480 432 368 432
WIRE 576 448 544 448
WIRE 368 464 368 432
WIRE 480 464 448 464
WIRE 512 512 512 480
WIRE 368 576 368 544
FLAG 112 224 0
FLAG 112 64 Vin
IOPIN 112 64 In
FLAG 256 96 0
FLAG 368 576 0
FLAG 384 64 Vout
IOPIN 384 64 In
FLAG 512 160 Vout
IOPIN 512 160 In
FLAG 512 288 Vout
IOPIN 512 288 In
FLAG 512 400 Vout
IOPIN 512 400 In
FLAG 512 272 0
FLAG 512 384 0
FLAG 512 512 0
FLAG 448 240 Vin
IOPIN 448 240 Out
FLAG 448 352 Vin
IOPIN 448 352 Out
FLAG 448 464 Vin
IOPIN 448 464 Out
SYMBOL voltage 112 96 R0
WINDOW 123 24 124 Left 2
WINDOW 39 0 0 Left 0
SYMATTR InstName V1
SYMATTR Value SINE(2.5 2.5 0.5)
SYMBOL voltage 384 64 R90
WINDOW 0 -32 56 VBottom 2
WINDOW 3 32 56 VTop 2
SYMATTR InstName V2
SYMATTR Value 5
SYMBOL res 384 224 R180
WINDOW 0 36 76 Left 2
WINDOW 3 36 40 Left 2
SYMATTR InstName R1
SYMATTR Value 10
SYMBOL res 384 336 R180
WINDOW 0 36 76 Left 2
WINDOW 3 36 40 Left 2
SYMATTR InstName R2
SYMATTR Value 10
SYMBOL res 384 448 R180
WINDOW 0 36 76 Left 2
WINDOW 3 36 40 Left 2
SYMATTR InstName R3
SYMATTR Value 10
SYMBOL res 384 560 R180
WINDOW 0 36 76 Left 2
WINDOW 3 36 40 Left 2
SYMATTR InstName R4
SYMATTR Value 10
SYMBOL OpAmps\\OP07 512 384 R0
SYMATTR InstName U1
SYMBOL OpAmps\\OP07 512 272 R0
SYMATTR InstName U2
SYMBOL OpAmps\\OP07 512 160 R0
SYMATTR InstName U3
TEXT 592 144 Left 2 !.tran 0 5 0
